
**** 04/21/21 17:56:10 ****** PSpice Lite (October 2012) ****** ID# 10813 ****

 ** Profile: "SCHEMATIC1-Lab 7"  [ C:\Program Files\OrCAD\OrCAD_16.6_Lite\tools\capture\lab 7-pspicefiles\schematic1\lab 7.sim ] 


 ****     CIRCUIT DESCRIPTION


******************************************************************************




** Creating circuit file "Lab 7.cir" 
** WARNING: THIS AUTOMATICALLY GENERATED FILE MAY BE OVERWRITTEN BY SUBSEQUENT SIMULATIONS

*Libraries: 
* Profile Libraries :
* Local Libraries :
* From [PSPICE NETLIST] section of C:\Users\Family\AppData\Roaming\SPB_16.6\cdssetup\OrCAD_PSpice/16.6.0/PSpice.ini file:
.lib "nomd.lib" 

*Analysis directives: 
.TRAN  0 100000s 0 
.OPTIONS ADVCONV
.PROBE64 V(alias(*)) I(alias(*)) W(alias(*)) D(alias(*)) NOISE(alias(*)) 
.INC "..\SCHEMATIC1.net" 



**** INCLUDING SCHEMATIC1.net ****
* source LAB 7
V_V1         N00595 0  
+PULSE 0 5 1e-12 1e-12 1e-12 50000 100000
C_C         N00621 0  100  TC=0,0 
R_R         N00595 N00621  100 TC=0,0 

**** RESUMING "Lab 7.cir" ****
.END

**** 04/21/21 17:56:10 ****** PSpice Lite (October 2012) ****** ID# 10813 ****

 ** Profile: "SCHEMATIC1-Lab 7"  [ C:\Program Files\OrCAD\OrCAD_16.6_Lite\tools\capture\lab 7-pspicefiles\schematic1\lab 7.sim ] 


 ****     INITIAL TRANSIENT SOLUTION       TEMPERATURE =   27.000 DEG C


******************************************************************************



 NODE   VOLTAGE     NODE   VOLTAGE     NODE   VOLTAGE     NODE   VOLTAGE


(N00595)    0.0000 (N00621)    0.0000 




    VOLTAGE SOURCE CURRENTS
    NAME         CURRENT

    V_V1         0.000E+00

    TOTAL POWER DISSIPATION   0.00E+00  WATTS



          JOB CONCLUDED

**** 04/21/21 17:56:10 ****** PSpice Lite (October 2012) ****** ID# 10813 ****

 ** Profile: "SCHEMATIC1-Lab 7"  [ C:\Program Files\OrCAD\OrCAD_16.6_Lite\tools\capture\lab 7-pspicefiles\schematic1\lab 7.sim ] 


 ****     JOB STATISTICS SUMMARY


******************************************************************************



  Total job time (using Solver 1)   =         .05
